Version 4
SHEET 1 2024 740
WIRE 96 -1888 -1296 -1888
WIRE -800 -1808 -912 -1808
WIRE -576 -1808 -800 -1808
WIRE -480 -1808 -576 -1808
WIRE -384 -1808 -480 -1808
WIRE -48 -1808 -384 -1808
WIRE -32 -1808 -48 -1808
WIRE 48 -1808 32 -1808
WIRE -912 -1792 -912 -1808
WIRE -912 -1696 -912 -1712
WIRE -384 -1680 -384 -1808
WIRE -368 -1680 -384 -1680
WIRE -288 -1680 -304 -1680
WIRE -192 -1648 -192 -1664
WIRE -576 -1632 -576 -1808
WIRE -480 -1632 -480 -1808
WIRE -384 -1632 -384 -1680
WIRE -800 -1568 -800 -1808
WIRE -672 -1568 -800 -1568
WIRE -192 -1568 -192 -1584
WIRE -192 -1568 -288 -1568
WIRE 96 -1568 96 -1888
WIRE 96 -1568 -192 -1568
WIRE -192 -1552 -192 -1568
WIRE -896 -1472 -992 -1472
WIRE -752 -1472 -896 -1472
WIRE -672 -1472 -752 -1472
WIRE -192 -1472 -192 -1488
WIRE -192 -1472 -288 -1472
WIRE -48 -1456 -48 -1808
WIRE -896 -1376 -896 -1472
WIRE -672 -1376 -832 -1376
WIRE -96 -1376 -288 -1376
WIRE -192 -1360 -192 -1472
WIRE -896 -1280 -896 -1296
WIRE -832 -1280 -832 -1376
WIRE -832 -1280 -896 -1280
WIRE -752 -1280 -752 -1472
WIRE -672 -1280 -752 -1280
WIRE -192 -1280 -192 -1296
WIRE -192 -1280 -288 -1280
WIRE -48 -1280 -48 -1360
WIRE -48 -1280 -192 -1280
WIRE 0 -1280 -48 -1280
WIRE 144 -1280 80 -1280
WIRE 160 -1280 144 -1280
WIRE 256 -1280 240 -1280
WIRE 288 -1280 256 -1280
WIRE 336 -1280 288 -1280
WIRE 464 -1280 336 -1280
WIRE -48 -1264 -48 -1280
WIRE 336 -1264 336 -1280
WIRE -896 -1248 -896 -1280
WIRE -704 -1248 -832 -1248
WIRE 464 -1248 464 -1280
WIRE 144 -1200 144 -1280
WIRE 256 -1200 256 -1280
WIRE -784 -1184 -800 -1184
WIRE -704 -1184 -704 -1248
WIRE -704 -1184 -720 -1184
WIRE -672 -1184 -704 -1184
WIRE -96 -1184 -288 -1184
WIRE 336 -1184 336 -1200
WIRE -48 -1152 -48 -1168
WIRE -896 -1136 -896 -1168
WIRE -992 -1088 -992 -1472
WIRE -832 -1088 -832 -1248
WIRE -832 -1088 -992 -1088
WIRE -672 -1088 -704 -1088
WIRE -80 -1088 -288 -1088
WIRE 144 -1088 144 -1120
WIRE 144 -1088 -80 -1088
WIRE -80 -1072 -80 -1088
WIRE 288 -1024 288 -1280
WIRE -672 -992 -704 -992
WIRE -80 -992 -80 -1008
WIRE -80 -992 -288 -992
WIRE 256 -992 256 -1120
WIRE 256 -992 -80 -992
WIRE -864 -896 -880 -896
WIRE -784 -896 -800 -896
WIRE -672 -896 -704 -896
WIRE 288 -896 288 -944
WIRE 288 -896 -288 -896
WIRE 304 -896 288 -896
WIRE 400 -896 384 -896
WIRE 464 -880 464 -1120
WIRE -752 -800 -768 -800
WIRE -672 -800 -688 -800
WIRE -1296 -704 -1296 -1888
WIRE -672 -704 -1296 -704
WIRE -544 -624 -544 -640
WIRE -416 -624 -416 -640
WIRE -544 -528 -544 -544
FLAG -416 -624 0
FLAG -544 -528 0
FLAG -768 -800 0
FLAG -880 -896 0
FLAG -800 -1184 0
FLAG -912 -1696 0
FLAG 48 -1808 0
FLAG -192 -1664 0
FLAG -48 -1152 0
FLAG 400 -896 0
FLAG 336 -1184 0
FLAG 464 -880 0
FLAG -912 -1808 IN
FLAG 464 -1280 OUT
FLAG -288 -1680 0
FLAG -896 -1136 0
SYMBOL PowerProducts\\LT3763 -480 -1136 R0
SYMATTR InstName U1
SYMBOL res -560 -640 R0
SYMATTR InstName R1
SYMATTR Value 82K
SYMBOL cap -688 -816 R90
WINDOW 0 0 32 VBottom 2
WINDOW 3 32 32 VTop 2
SYMATTR InstName C1
SYMATTR Value .01µ
SYMBOL cap -720 -1200 R90
WINDOW 0 0 32 VBottom 2
WINDOW 3 32 32 VTop 2
SYMATTR InstName C4
SYMATTR Value 2.2µ
SYMATTR SpiceLine V=10 Irms=0 Rser=0.002 Lser=0 mfg="TDK" pn="C2012X5RIA225K" type="X5R"
SYMBOL voltage -912 -1808 R0
WINDOW 123 24 138 Left 2
WINDOW 39 24 117 Left 2
SYMATTR Value 15
SYMATTR InstName V2
SYMBOL cap -32 -1792 R270
WINDOW 0 32 32 VTop 2
WINDOW 3 0 32 VBottom 2
SYMATTR InstName C6
SYMATTR Value 10µ
SYMATTR SpiceLine V=25 Irms=0 Rser=0.001 Lser=0 mfg="TDK" pn="C575OX7RIE106M" type="X7R"
SYMBOL cap -208 -1584 M180
WINDOW 0 24 56 Left 2
WINDOW 3 24 8 Left 2
SYMATTR InstName C7
SYMATTR Value 4.7µ
SYMATTR SpiceLine V=10 Irms=0 Rser=0.003 Lser=0 mfg="TDK" pn="C3216X5RlA475M" type="X5R"
SYMBOL schottky -208 -1552 R0
SYMATTR InstName D1
SYMATTR Value ZLLS2000
SYMATTR Description Diode
SYMATTR Type diode
SYMBOL cap -208 -1360 R0
SYMATTR InstName C8
SYMATTR Value .22µ
SYMBOL nmos -96 -1456 R0
SYMATTR InstName Q1
SYMATTR Value BSZ0901NSI
SYMBOL nmos -96 -1264 R0
SYMATTR InstName Q2
SYMATTR Value BSZ0904NSI
SYMBOL res 144 -1264 R270
WINDOW 0 32 56 VTop 2
WINDOW 3 0 56 VBottom 2
SYMATTR InstName R9
SYMATTR Value 15m
SYMBOL res 272 -1040 R0
SYMATTR InstName R10
SYMATTR Value 54.9K
SYMBOL res 288 -880 R270
WINDOW 0 32 56 VTop 2
WINDOW 3 0 56 VBottom 2
SYMATTR InstName R11
SYMATTR Value 10K
SYMBOL LED 448 -1248 R0
SYMATTR InstName D2
SYMATTR Value PT-121-B
SYMATTR Description Diode
SYMATTR Type diode
SYMBOL ind -16 -1264 R270
WINDOW 0 41 58 VTop 2
WINDOW 3 -1 56 VBottom 2
SYMATTR InstName L1
SYMATTR Value 2µ
SYMATTR SpiceLine Ipk=24 Rser=0.0028 Rpar=0 Cpar=0 mfg="Pulse" pn="PG0077.202"
SYMBOL cap -800 -912 R90
WINDOW 0 0 32 VBottom 2
WINDOW 3 32 32 VTop 2
SYMATTR InstName C9
SYMATTR Value 4.7n
SYMBOL res -688 -912 R90
WINDOW 0 0 56 VBottom 2
WINDOW 3 32 56 VTop 2
SYMATTR InstName R13
SYMATTR Value 54.9K
SYMBOL polcap 320 -1264 R0
WINDOW 3 35 31 Left 2
WINDOW 123 26 54 Left 2
SYMATTR Value 220µ
SYMATTR Value2 x2
SYMATTR InstName C10
SYMATTR SpiceLine V=10 Irms=6.5 Rser=0.006 Lser=0 mfg="KEMET" pn="T530D227M010ASE006" type="Tantalum"
SYMATTR Description Capacitor
SYMATTR Type cap
SYMBOL cap -368 -1664 R270
WINDOW 0 32 32 VTop 2
WINDOW 3 0 32 VBottom 2
SYMATTR InstName C11
SYMATTR Value 1µ
SYMATTR SpiceLine V=25 Irms=0 Rser=0.007 Lser=0 mfg="TDK" pn="C3216X7RIE105M" type="X7R"
SYMBOL LED 448 -1184 R0
SYMATTR InstName D3
SYMATTR Value PT-121-B
SYMATTR Description Diode
SYMATTR Type diode
SYMBOL res -880 -1280 R180
WINDOW 0 36 76 Left 2
WINDOW 3 36 40 Left 2
SYMATTR InstName R5
SYMATTR Value 54.9K
SYMBOL res -880 -1152 R180
WINDOW 0 36 76 Left 2
WINDOW 3 36 40 Left 2
SYMATTR InstName R6
SYMATTR Value 110K
SYMBOL res 160 -1104 R180
WINDOW 0 36 76 Left 2
WINDOW 3 36 40 Left 2
SYMATTR InstName R2
SYMATTR Value 10
SYMBOL res 272 -1104 R180
WINDOW 0 36 76 Left 2
WINDOW 3 36 40 Left 2
SYMATTR InstName R3
SYMATTR Value 10
SYMBOL cap -64 -1008 R180
WINDOW 0 24 56 Left 2
WINDOW 3 24 8 Left 2
SYMATTR InstName C3
SYMATTR Value 33n
TEXT 208 -752 Left 2 !.tran 0 10m 0.1m steady nodiscard uic
TEXT 368 -1672 Bottom 2 ;LT3763 10W  Single LED Driver\nInput: 5V to 20V    Outputs: Cree XM-L2
